Version 4
SHEET 1 1264 680
WIRE -256 -64 -256 -80
WIRE -256 -64 -528 -64
WIRE -256 -32 -256 -64
WIRE 160 -16 96 -16
WIRE 272 -16 224 -16
WIRE -256 64 -256 48
WIRE 96 96 96 -16
WIRE 112 96 96 96
WIRE 272 96 272 -16
WIRE 272 96 256 96
WIRE 288 96 272 96
WIRE -448 112 -576 112
WIRE 288 112 288 96
WIRE -592 128 -944 128
WIRE 112 128 -48 128
WIRE 336 128 336 -80
WIRE 336 128 256 128
WIRE -944 144 -944 128
WIRE -528 144 -528 -64
WIRE -576 160 -576 112
WIRE -560 160 -576 160
WIRE 496 160 256 160
WIRE -448 176 -448 112
WIRE -448 176 -496 176
WIRE -48 176 -448 176
WIRE -592 192 -592 128
WIRE -560 192 -592 192
WIRE 112 192 96 192
WIRE 272 192 256 192
WIRE 96 224 96 192
WIRE 272 224 272 192
WIRE -944 256 -944 224
WIRE -528 288 -528 208
WIRE 272 320 272 288
FLAG -256 64 0
FLAG 96 224 0
FLAG 288 112 0
FLAG 272 320 0
FLAG -944 256 0
FLAG 496 160 URMS
IOPIN 496 160 Out
FLAG -528 288 0
SYMBOL AutoGenerated\\AD737 176 144 R0
SYMATTR InstName U1
SYMBOL voltage -256 -48 R0
WINDOW 123 0 0 Left 0
WINDOW 39 0 0 Left 0
SYMATTR InstName V1
SYMATTR Value 5V
SYMBOL cap 256 224 R0
SYMATTR InstName C1
SYMATTR Value 15µ
SYMBOL cap 224 -32 R90
WINDOW 0 0 32 VBottom 2
WINDOW 3 32 32 VTop 2
SYMATTR InstName C2
SYMATTR Value 39.8p
SYMBOL voltage -944 128 R0
WINDOW 123 0 0 Left 0
WINDOW 39 0 0 Left 0
SYMATTR InstName V2
SYMATTR Value SINE(0 0.5 50)
SYMBOL Opamps\\AD795 -528 112 R0
SYMATTR InstName U2
TEXT 504 -56 Left 2 ;CAV Kondensator notwendig? Wenn ja mehr oder weniger Farad?
TEXT -288 344 Left 2 !.tran 1s
