Version 4
SHEET 1 1032 680
WIRE 336 -32 80 -32
WIRE -304 32 -400 32
WIRE 304 32 -304 32
WIRE -304 64 -304 32
WIRE -48 96 -208 96
WIRE 80 96 80 -32
WIRE 112 96 80 96
WIRE 336 96 336 -32
WIRE 336 96 256 96
WIRE -208 112 -208 96
WIRE -400 128 -400 112
WIRE -400 128 -416 128
WIRE -48 128 -48 96
WIRE -16 128 -48 128
WIRE 112 128 -16 128
WIRE 304 128 304 32
WIRE 304 128 256 128
WIRE -16 144 -16 128
WIRE -304 160 -304 144
WIRE -272 160 -304 160
WIRE 656 160 256 160
WIRE -304 176 -304 160
WIRE 112 192 96 192
WIRE 288 192 256 192
WIRE -208 224 -208 192
WIRE 288 224 288 192
WIRE -416 256 -416 128
WIRE -320 256 -416 256
WIRE -304 256 -320 256
WIRE 336 272 336 96
WIRE -320 288 -320 256
WIRE 96 288 96 192
WIRE 96 288 -320 288
WIRE 288 288 96 288
FLAG -208 224 0
FLAG -16 224 0
FLAG 656 160 OUT
IOPIN 656 160 Out
FLAG 336 272 0
FLAG -272 160 0
SYMBOL AutoGenerated\\AD736 176 144 R0
SYMATTR InstName U1
SYMBOL voltage -400 16 R0
WINDOW 123 0 0 Left 0
WINDOW 39 0 0 Left 0
SYMATTR InstName V1
SYMATTR Value 9
SYMBOL voltage -208 96 R0
WINDOW 123 0 0 Left 0
WINDOW 39 0 0 Left 0
SYMATTR InstName V2
SYMATTR Value SINE(0 5 50)
SYMBOL res -32 128 R0
SYMATTR InstName R1
SYMATTR Value 1Meg
SYMBOL polcap 272 224 R0
SYMATTR InstName C1
SYMATTR Value 15µ
SYMBOL res -320 48 R0
SYMATTR InstName R2
SYMATTR Value 10k
SYMBOL res -320 160 R0
SYMATTR InstName R3
SYMATTR Value 10k
TEXT -432 312 Left 2 !.tran 3s
TEXT 480 240 Left 2 ;CAV groﬂ: UBRSS klein\nCAV klein: Zeit bis zum korrekten RMS geringer
